tests/data/power_flow/pandapower-asymmetric-shunt/asym_output.json
{
  "line": [
    {
      "id": 3,
      "p_from": [
        392.7953326581246,
        392.79533265813365,
        392.79533265812563
      ],
      "q_from": [
        -118413.2516177101,
        -118413.25161771008,
        -118413.25161771008
      ],
      "i_from": [
        19.53322823694358,
        19.533228236943575,
        19.53322823694358
      ],
      "p_to": [
        -367.74088405366973,
        -367.7408840536698,
        -367.74088405367
      ],
      "q_to": [
        2941.9270780554334,
        2941.927078055433,
        2941.9270780554325
      ],
      "i_to": [
        0.48890855496655766,
        0.48890855496655766,
        0.48890855496655766
      ]
    }
  ],
  "node": [
    {
      "id": 1,
      "u_pu": [
        1.0,
        0.9999999999999999,
        0.9999999999999999
      ],
      "u": [
        6062.177826491071,
        6062.17782649107,
        6062.17782649107
      ],
      "u_angle": [
        0.0,
        -2.0943951023931953,
        2.0943951023931953
      ]
    },
    {
      "id": 2,
      "u_pu": [
        1.0003276805889172,
        1.000327680588917,
        1.000327680588917
      ],
      "u": [
        6064.164284491376,
        6064.164284491375,
        6064.164284491375
      ],
      "u_angle": [
        -0.0004148349824361248,
        -2.0948099373756315,
        2.093980267410759
      ]
    }
  ]
}