tests/data/power_flow/pandapower-asymmetric-shunt/pgm_asym_output.json
{
  "line": [
    {
      "id": 3,
      "energized": 1,
      "loading": 0.01953322823686111,
      "p_from": [
        392.7953332928342,
        392.79533330815093,
        392.79533328744526
      ],
      "q_from": [
        -118413.25161720837,
        -118413.25161718862,
        -118413.25161718288
      ],
      "i_from": [
        19.53322823686111,
        19.533228236857852,
        19.533228236856893
      ],
      "s_from": [
        118413.90309728905,
        118413.90309726934,
        118413.90309726351
      ],
      "p_to": [
        -367.7408846793483,
        -367.74088469313335,
        -367.7408846872973
      ],
      "q_to": [
        2941.9270775770938,
        2941.9270775710183,
        2941.927077525652
      ],
      "i_to": [
        0.4889085549010863,
        0.48890855490037416,
        0.4889085548928315
      ],
      "s_to": [
        2964.8217970134474,
        2964.8217970091287,
        2964.8217969633893
      ]
    }
  ],
  "node": [
    {
      "id": 1,
      "energized": 1,
      "u_pu": [
        1.0000000000000033,
        1.0000000000000036,
        1.0000000000000036
      ],
      "u": [
        6062.177826491092,
        6062.177826491094,
        6062.177826491094
      ],
      "u_angle": [
        -3.6517285329249943e-16,
        -2.0943951023931957,
        2.094395102393195
      ]
    },
    {
      "id": 2,
      "energized": 1,
      "u_pu": [
        1.0003276805889136,
        1.0003276805889136,
        1.0003276805889134
      ],
      "u": [
        6064.164284491356,
        6064.164284491356,
        6064.164284491354
      ],
      "u_angle": [
        -0.00041483498243648903,
        -2.094809937375632,
        2.093980267410759
      ]
    }
  ],
  "shunt": [
    {
      "id": 6,
      "energized": 1,
      "p": [
        367.74088469300534,
        367.74088469300557,
        367.7408846930051
      ],
      "q": [
        -2941.9270775440427,
        -2941.9270775440427,
        -2941.927077544042
      ],
      "i": [
        0.4889085548959576,
        0.4889085548959576,
        0.48890855489595747
      ],
      "s": [
        2964.821796982346,
        2964.821796982346,
        2964.821796982345
      ],
      "pf": [
        0.12403473458920845,
        0.12403473458920854,
        0.12403473458920841
      ]
    },
    {
      "id": 7,
      "energized": 1,
      "p": [
        -0.0,
        -0.0,
        -0.0
      ],
      "q": [
        -0.0,
        -0.0,
        0.0
      ],
      "i": [
        0.0,
        0.0,
        0.0
      ],
      "s": [
        0.0,
        0.0,
        0.0
      ],
      "pf": [
        0.0,
        0.0,
        0.0
      ]
    }
  ],
  "source": [
    {
      "id": 4,
      "energized": 1,
      "p": [
        1064.8870067432642,
        -4234.039146000984,
        5190.74884016978
      ],
      "q": [
        -111682.52179254928,
        -120014.31721291362,
        -119461.96061344891
      ],
      "i": [
        18.423675730868652,
        19.809544475885485,
        19.7247066364678
      ],
      "s": [
        111687.59849813396,
        120088.98127460206,
        119574.67920563676
      ],
      "pf": [
        0.009534514315490954,
        -0.035257515727601996,
        0.04341010048827367
      ]
    }
  ]
}